Version 4
SHEET 1 880 680
WIRE 128 -48 80 -48
WIRE 208 -48 192 -48
WIRE 80 32 80 -48
WIRE 128 32 80 32
WIRE 208 32 208 -48
WIRE 256 32 208 32
WIRE 80 144 80 32
WIRE 256 176 256 32
WIRE 80 336 80 208
WIRE 128 336 80 336
WIRE 240 336 208 336
WIRE 80 432 80 336
WIRE 128 432 80 432
WIRE 208 432 208 336
WIRE 208 432 192 432
FLAG 176 256 0
FLAG -320 224 0
FLAG -320 16 0
FLAG -320 -112 V1
FLAG -320 96 V2
FLAG -16 144 V1
FLAG -16 208 V2
FLAG 240 336 V2
FLAG 288 176 Vout
SYMBOL cktsym\\opamprails 160 176 R0
SYMATTR InstName U1
SYMBOL res 80 128 R90
WINDOW 0 0 56 VBottom 2
WINDOW 3 22 12 VTop 2
SYMATTR InstName R2
SYMATTR Value 316
SYMBOL res 224 320 R90
WINDOW 0 0 56 VBottom 2
WINDOW 3 32 56 VTop 2
SYMATTR InstName R3
SYMATTR Value 909
SYMBOL res 224 16 R90
WINDOW 0 0 56 VBottom 2
WINDOW 3 32 56 VTop 2
SYMATTR InstName R4
SYMATTR Value 909
SYMBOL res 80 192 R90
WINDOW 0 61 57 VBottom 2
WINDOW 3 19 12 VTop 2
SYMATTR InstName R1
SYMATTR Value 316
SYMBOL cktsym\\vsource -320 -48 R0
SYMATTR Value {V}
SYMATTR InstName V1
SYMBOL cktsym\\vsource -320 160 R0
SYMATTR Value 1.65
SYMATTR InstName V2
SYMBOL cap 192 -64 R90
WINDOW 0 0 32 VBottom 2
WINDOW 3 32 32 VTop 2
SYMATTR InstName .33u
SYMBOL cap 192 416 R90
WINDOW 0 0 32 VBottom 2
WINDOW 3 32 32 VTop 2
SYMATTR InstName C2
SYMATTR Value .33µ
