Version 4
SHEET 1 880 680
WIRE 0 -320 -448 -320
WIRE 0 -176 0 -320
WIRE -448 -128 -448 -320
WIRE -240 -128 -320 -128
WIRE -112 -128 -240 -128
WIRE 288 -96 112 -96
WIRE -112 16 -112 -64
WIRE 112 16 112 -96
WIRE 112 16 -112 16
WIRE 288 32 32 32
WIRE -448 80 -448 -128
WIRE 176 80 -448 80
WIRE 32 128 32 32
WIRE 64 128 32 128
WIRE 320 160 288 160
WIRE 48 192 -112 192
WIRE 64 192 48 192
WIRE 288 192 288 160
WIRE -448 240 -448 80
WIRE 112 320 48 320
WIRE 288 320 240 320
FLAG 320 160 Vout
SYMBOL cktsym\\opamprails 160 160 R0
SYMATTR InstName U1
SYMBOL cktsym\\gnd_alt 176 240 R0
SYMATTR InstName U3
SYMBOL cktsym\\vsource -448 304 R0
SYMATTR Value 3.3V
SYMATTR InstName Vdd
SYMBOL cktsym\\gnd_alt -448 368 R0
SYMATTR InstName U2
SYMBOL cktsym\\capacitor -112 256 R0
WINDOW 3 -194 27 Left 2
WINDOW 0 -53 -27 Left 2
SYMATTR Value {wc(.1uF,.05,4)}
SYMATTR InstName C1
SYMBOL cktsym\\gnd_alt -112 320 R0
SYMATTR InstName U5
SYMBOL cktsym\\resistor 288 96 R0
SYMATTR Value {wc(10k,.01,2)}
SYMATTR InstName R2
SYMBOL cktsym\\resistor 288 -32 R0
SYMATTR Value {wc(10k,.01,1)}
SYMATTR InstName R3
SYMBOL cktsym\\opamprails -16 -96 R0
SYMATTR InstName U4
SYMBOL cktsym\\resistor -384 -128 R90
WINDOW 3 12 0 VTop 2
WINDOW 0 -12 0 VBottom 2
SYMATTR Value {wc(10k,.01,0)}
SYMATTR InstName R5
SYMBOL cktsym\\resistor -240 -192 R180
WINDOW 3 28 -16 Left 2
WINDOW 0 28 16 Left 2
SYMATTR Value {wc(10k,.01,5)}
SYMATTR InstName R6
SYMBOL cktsym\\gnd_alt 0 -16 R0
SYMATTR InstName U6
SYMBOL cktsym\\gnd_alt -240 -256 R180
SYMATTR InstName U7
SYMBOL cktsym\\resistor 48 256 R0
SYMATTR Value {wc(604k,.01,8)}
SYMATTR InstName R1
SYMBOL cktsym\\resistor 288 256 R0
SYMATTR Value {wc(953k,.01,6)}
SYMATTR InstName R4
SYMBOL cktsym\\resistor 176 320 R90
WINDOW 3 12 0 VTop 2
WINDOW 0 -12 0 VBottom 2
SYMATTR Value {wc(3010k,.01,7)}
SYMATTR InstName R7
TEXT -352 528 Left 2 !.include engr2420.sub
TEXT -80 528 Left 2 !.tran 4 startup
TEXT -616 496 Left 2 !.model GREEN D(Is=1.69E-24 N=1.963 Rs=20)
TEXT -616 432 Left 2 !.func wc(nom,tol,index) if(run==numruns,nom,if(binary(run,index),nom*(1+tol),nom*(1-tol)))
TEXT -616 464 Left 2 !.func binary(run,index) floor(run/(2**index))-2*floor(run/(2**(index+1)))
TEXT -32 496 Left 2 !.step param run 0 256 1
TEXT -616 528 Left 2 !.param numruns=256
